Version 4
SHEET 1 1168 680
WIRE -176 -96 -176 -128
WIRE -64 -96 -64 -128
WIRE 48 -96 48 -128
WIRE 160 -96 160 -128
WIRE 832 -16 832 -48
WIRE 768 0 720 0
WIRE 944 16 912 16
WIRE 768 32 720 32
WIRE 304 64 304 32
WIRE 496 64 496 32
WIRE 400 80 352 80
WIRE 448 80 400 80
WIRE 832 80 832 48
WIRE 400 128 352 128
WIRE 448 128 400 128
WIRE 400 160 400 128
WIRE 304 176 304 144
WIRE 496 176 496 144
FLAG -176 -16 0
FLAG -64 -16 0
FLAG -176 -128 VDD
FLAG -64 -128 VSS
FLAG 832 -48 VDD
FLAG 832 80 VSS
FLAG 944 16 OUT
FLAG 48 -16 0
FLAG 48 -128 DIFF
FLAG 720 0 INP
FLAG 720 32 INN
FLAG 160 -16 0
FLAG 160 -128 COMM
FLAG 304 176 COMM
FLAG 496 176 COMM
FLAG 400 160 0
FLAG 400 80 DIFF
FLAG 304 32 INP
FLAG 496 32 INN
SYMBOL voltage -176 -112 R0
WINDOW 123 0 0 Left 0
WINDOW 39 0 0 Left 0
SYMATTR InstName V1
SYMATTR Value 1.8
SYMBOL voltage -64 -112 R0
WINDOW 123 0 0 Left 0
WINDOW 39 0 0 Left 0
SYMATTR InstName V2
SYMATTR Value 0
SYMBOL opamp1stage_good 816 16 R0
SYMATTR InstName X1
SYMBOL voltage 48 -112 R0
WINDOW 123 0 0 Left 0
WINDOW 39 0 0 Left 0
SYMATTR InstName V3
SYMATTR Value 0.9
SYMBOL voltage 160 -112 R0
WINDOW 123 0 0 Left 0
WINDOW 39 0 0 Left 0
SYMATTR InstName V4
SYMATTR Value 0.9
SYMBOL e 496 48 R0
SYMATTR InstName E1
SYMATTR Value -0.5
SYMBOL e 304 48 M0
SYMATTR InstName E2
SYMATTR Value 0.5
TEXT 240 -184 Left 2 !.dc v3 -1.8 1.8 0.01
TEXT -200 40 Left 2 !.param L=180n\n.param W1=10u L1=L\n.param W2=W1 L2=L\n.param W3=420n L3=L\n.param W4=W3 L4=L\n.param W5=10u L5=1u\n.param W6=5u L6=1u\n.param ibias=20u
TEXT -128 -184 Left 2 !.lib 'CMOS_TT.lib'
TEXT 344 -160 Left 2 !.meas outmin FIND V(OUT) WHEN D(V(OUT))=1 RISE=1\n.meas outmax FIND V(OUT) WHEN D(V(OUT))=1 FALL=1\n.meas outrange PARAM {min(abs(outmax-0.9),abs(0.9-outmin))*2}
