Version 4
SHEET 1 1168 680
WIRE -176 -96 -176 -128
WIRE -64 -96 -64 -128
WIRE 48 -96 48 -128
WIRE 304 -32 304 -64
WIRE 240 -16 192 -16
WIRE 416 0 384 0
WIRE 240 16 192 16
WIRE 304 64 304 32
FLAG -176 -16 0
FLAG -64 -16 0
FLAG -176 -128 VDD
FLAG -64 -128 VSS
FLAG 304 -64 VDD
FLAG 304 64 VSS
FLAG 416 0 OUT
FLAG 48 -16 0
FLAG 48 -128 COMM
FLAG 192 -16 COMM
FLAG 192 16 COMM
SYMBOL voltage -176 -112 R0
WINDOW 123 0 0 Left 0
WINDOW 39 0 0 Left 0
SYMATTR InstName V1
SYMATTR Value 1.8
SYMBOL voltage -64 -112 R0
WINDOW 123 0 0 Left 0
WINDOW 39 0 0 Left 0
SYMATTR InstName V2
SYMATTR Value 0
SYMBOL opamp1stage_good 288 0 R0
SYMATTR InstName X1
SYMBOL voltage 48 -112 R0
WINDOW 123 0 0 Left 0
WINDOW 39 0 0 Left 0
SYMATTR InstName V3
SYMATTR Value 0.9
TEXT 112 -184 Left 2 !.dc v3 0 1.8 0.01
TEXT -200 40 Left 2 !.param L=180n\n.param W1=10u L1=L\n.param W2=W1 L2=L\n.param W3=600n L3=L\n.param W4=W3 L4=L\n.param W5=10u L5=1u\n.param W6=5u L6=1u\n.param ibias=20u
TEXT -128 -184 Left 2 !.lib 'CMOS_TT.lib'
TEXT 296 -184 Left 2 !.meas inmin WHEN D(V(comm)-V(x1:2))=0.5 FALL=1\n.meas inmax WHEN D(V(comm)-V(x1:2))=0.5 RISE=1\n.meas inrange PARAM inmax-inmin
