Version 4
SHEET 1 1168 680
WIRE -176 -96 -176 -128
WIRE -64 -96 -64 -128
WIRE 320 -32 320 -64
WIRE 144 -16 144 -64
WIRE 256 -16 144 -16
WIRE 432 0 400 0
WIRE 144 16 144 -16
WIRE 256 16 144 16
WIRE 144 64 144 16
WIRE 320 64 320 32
FLAG -176 -16 0
FLAG -64 -16 0
FLAG -176 -128 VDD
FLAG -64 -128 VSS
FLAG 320 -64 VDD
FLAG 144 -144 VDD
FLAG 144 144 VSS
FLAG 320 64 VSS
FLAG 432 0 OUT
FLAG 432 64 0
DATAFLAG 416 0 ""
DATAFLAG 176 -16 ""
SYMBOL voltage -176 -112 R0
WINDOW 123 0 0 Left 0
WINDOW 39 0 0 Left 0
SYMATTR InstName V1
SYMATTR Value 1.8
SYMBOL voltage -64 -112 R0
WINDOW 123 0 0 Left 0
WINDOW 39 0 0 Left 0
SYMATTR InstName V2
SYMATTR Value 0
SYMBOL opamp1stage_good 304 0 R0
SYMATTR InstName X1
SYMBOL res 128 -160 R0
SYMATTR InstName R1
SYMATTR Value 10K
SYMBOL res 128 48 R0
SYMATTR InstName R2
SYMATTR Value 10K
SYMBOL cap 416 0 R0
SYMATTR InstName C1
SYMATTR Value 100F
TEXT -176 -184 Left 2 !.op
TEXT -200 40 Left 2 !.param L=180n\n.param W1=10u L1=L\n.param W2=W1 L2=L\n.param W3=420n L3=L\n.param W4=W3 L4=L\n.param W5=10u L5=1u\n.param W6=5u L6=1u\n.param ibias=20u
TEXT -128 -184 Left 2 !.lib 'CMOS_TT.lib'
